*Heading
** Job name: Job-1 Model name: Model-1
** Generated by: Abaqus/CAE 2018
*Preprint, echo=NO, model=NO, history=NO, contact=NO
**
** PARTS
**
*Part, name=Cube
*Node
      1,         -1.5,         -1.5,           3.
      2,         -1.5,        -0.75,           3.
      3,         -1.5,           0.,           3.
      4,         -1.5,         0.75,           3.
      5,         -1.5,          1.5,           3.
      6,         -1.5,         -1.5,         2.25
      7,         -1.5,        -0.75,         2.25
      8,         -1.5,           0.,         2.25
      9,         -1.5,         0.75,         2.25
     10,         -1.5,          1.5,         2.25
     11,         -1.5,         -1.5,          1.5
     12,         -1.5,        -0.75,          1.5
     13,         -1.5,           0.,          1.5
     14,         -1.5,         0.75,          1.5
     15,         -1.5,          1.5,          1.5
     16,         -1.5,         -1.5,         0.75
     17,         -1.5,        -0.75,         0.75
     18,         -1.5,           0.,         0.75
     19,         -1.5,         0.75,         0.75
     20,         -1.5,          1.5,         0.75
** ... 105 like lines cut
*Element, type=C3D8
 1,  26,  27,  32,  31,   1,   2,   7,   6
 2,  27,  28,  33,  32,   2,   3,   8,   7
 3,  28,  29,  34,  33,   3,   4,   9,   8
 4,  29,  30,  35,  34,   4,   5,  10,   9
 5,  31,  32,  37,  36,   6,   7,  12,  11
 6,  32,  33,  38,  37,   7,   8,  13,  12
 7,  33,  34,  39,  38,   8,   9,  14,  13
 8,  34,  35,  40,  39,   9,  10,  15,  14
 9,  36,  37,  42,  41,  11,  12,  17,  16
10,  37,  38,  43,  42,  12,  13,  18,  17
11,  38,  39,  44,  43,  13,  14,  19,  18
12,  39,  40,  45,  44,  14,  15,  20,  19
13,  41,  42,  47,  46,  16,  17,  22,  21
14,  42,  43,  48,  47,  17,  18,  23,  22
15,  43,  44,  49,  48,  18,  19,  24,  23
16,  44,  45,  50,  49,  19,  20,  25,  24
17,  51,  52,  57,  56,  26,  27,  32,  31
18,  52,  53,  58,  57,  27,  28,  33,  32
19,  53,  54,  59,  58,  28,  29,  34,  33
20,  54,  55,  60,  59,  29,  30,  35,  34
** ... 44 like lines cut
*Nset, nset=_PickedSet2, internal, generate
   1,  125,    1
*Elset, elset=_PickedSet2, internal, generate
  1,  64,   1
** Section: Solid
*Solid Section, elset=_PickedSet2, material=cu_grn
,
*End Part
**  
**
** ASSEMBLY
**
*Assembly, name=Assembly
**  
*Instance, name=Cube-1, part=Cube
*End Instance
**  
*Nset, nset=Bottom, instance=Cube-1, generate
   1,  121,    5
*Elset, elset=Bottom, instance=Cube-1, generate
  1,  61,   4
*Nset, nset=Top, instance=Cube-1, generate
   5,  125,    5
*Elset, elset=Top, instance=Cube-1, generate
  4,  64,   4
*End Assembly
** 
** MATERIALS
** 
*Material, name=Steel
*Elastic
 2e+11, 0.28
*Material, name=cu_grn
*user material, constants=48, type=mechanical
298.00, 8.960e-09, 3.800e+08, 1.770e-05, 0.30, -36.30, 179500.00, -16.40
126400.00, -25.70, 82500.00, 0.05, 2.57e-07, 2.00e+06, 0.182, 0.25
0.122, 0.122, 0.070, 0.625, 0.137, 0.122, 1.000, 0.000
1.00e-12, 40800.00, 1.38e-23, 0.00, 5.00, 0.000, 79.82, 45.54
30.53, 12, 1615.38, 2.50e-02, 20.00, 12.0, 180.0, 2.00
** -, -, gam_0, m, s0, h0, s_s, a
0.0, 6.00e+03, 0.001, 0.012, 16.0, 250.0, 148.0, 2.5
*depvar
106
*user output variables
79
** 
** BOUNDARY CONDITIONS
** 
** Name: fixed Type: Displacement/Rotation
*Boundary
Bottom, 1, 1
Bottom, 2, 2
Bottom, 3, 3
Bottom, 4, 4
Bottom, 5, 5
Bottom, 6, 6
** ----------------------------------------------------------------
** 
** STEP: Load
** 
*Step, name=Load, nlgeom=YES
*Static
0.001, 5., 1e-05, 0.2
** 
** BOUNDARY CONDITIONS
** 
** Name: Load Type: Velocity/Angular velocity
*Boundary, type=VELOCITY
Top, 2, 2, -0.1
** 
** OUTPUT REQUESTS
** 
*Restart, write, frequency=0
** 
** FIELD OUTPUT: F-Output-1
** 
*Output, field, variable=PRESELECT
** 
** HISTORY OUTPUT: H-Output-1
** 
*Output, history, variable=PRESELECT
*End Step
